.Model m504 npn level=6
+ TREF = 25.0
+ EXMOD = 1.0
+ EXPHI = 1.0
+ EXAVL = 0.0
+ IS = 22.0E-18
+ IK = 0.1
+ VER = 2.5
+ VEF = 44.0
+ BF = 215.0
+ IBF = 2.7E-15
+ MLF = 2.0
+ XIBI = 0.0
+ BRI = 7.0
+ IBR = 1.0e-15
+ VLR = 0.2
+ XEXT = 0.63
+ WAVL = 1.1E-6
+ VAVL = 3.0
+ SFH = 0.3
+ RE = 5.0
+ RBC = 23.
+ RBV = 18.
+ RCC = 12.
+ RCV = 150.
+ SCRCV = 1250.0
+ IHC = 4.e-3
+ AXI = 0.3
+ CJE = 73.0e-15
+ VDE = 0.95
+ PE = 0.4
+ XCJE = 0.4
+ CJC = 78.0E-15
+ VDC = 0.68
+ PC = 0.5
+ XP = 0.35
+ MC = 0.5
+ XCJC = 32.E-3
+ MTAU = 1.0
+ TAUE = 2.0E-12
+ TAUB = 4.2E-12
+ TEPI = 41.E-12
+ TAUR = 520.E-12
+ DEG = 0.01
+ XREC = 0.1
+ AQBO = 0.3
+ AE = 0.0
+ AB = 1.0
+ AEPI = 2.5
+ AEX = 0.62
+ AC = 2.0
+ DVGBF = 0.05
+ DVGBR = 0.045
+ VGB = 1.17
+ VGC = 1.18
+ VGJ = 1.15
+ DVGTE = 0.05
+ AF = 2.0
+ KF = 2.E-11
+ KFN = 2.E-11
+ ISS = 48.E-18
+ IKS = 250.E-6
+ CJS = 315.E-15
+ VDS = 0.62
+ PS = 0.34
+ VGS = 1.20
+ AS = 1.58
