*Id-Vd Characteristics for NMOS -- Tanvir Morshed 2010

*.option abstol=1e-6 reltol=1e-6 post ingold 

*.hdl "bsimsoi450.va"
.include "modelcard.bsimsoiVA.nmos"

* --- Voltage Sources ---
vd drain  0 dc=0
vg gate  0 dc=1
vs source 0 dc=0
ve substrate 0 0
 
* --- Transistor ---
m1 drain gate source substrate  nmos1 W=1e-6 L=1e-7 soimod=0

* --- DC Analysis ---
.dc vd 0 1.2 0.01 vg 0.2 1.2 0.1

.print dc i(vd) 

.control
run
plot -i(vd)
.endc
.end
